Info: SIMULATION PARAMETERS:
Info: TIMESTEP               2
Info: NUMBER OF STEPS        0
Info: STEPS PER CYCLE        10
Info: PERIODIC CELL BASIS 1  100 0 0
Info: PERIODIC CELL BASIS 2  0 100 0
Info: PERIODIC CELL BASIS 3  0 0 100
Info: PERIODIC CELL CENTER   0 0 0
Info: WRAPPING WATERS AROUND PERIODIC BOUNDARIES ON OUTPUT.
Info: WRAPPING ALL CLUSTERS AROUND PERIODIC BOUNDARIES ON OUTPUT.
Info: FIRST LDB TIMESTEP     50
Info: LAST LDB TIMESTEP     -1
Info: HOM BACKGROUND SCALING 1
Info: PME BACKGROUND SCALING 1
Info: MIN ATOMS PER PATCH    40
Info: INITIAL TEMPERATURE    300
Info: CENTER OF MASS MOVING INITIALLY? NO
Info: REMOVING CENTER OF MASS DRIFT DURING SIMULATION
Info: DIELECTRIC             1
Info: EXCLUDE                SCALED ONE-FOUR
Info: 1-4 ELECTROSTATICS SCALED BY 1
Info: MODIFIED 1-4 VDW PARAMETERS WILL BE USED
Info: DCD FILENAME           MDequil.dcd
Info: DCD FREQUENCY          5000
Info: DCD FIRST STEP         5000
Info: DCD FILE WILL CONTAIN UNIT CELL DATA
Info: XST FILENAME           MDequil.xst
Info: XST FREQUENCY          5000
Info: NO VELOCITY DCD OUTPUT
Info: NO FORCE DCD OUTPUT
Info: OUTPUT FILENAME        MDequil
Info: BINARY OUTPUT FILES WILL BE USED
Info: RESTART FILENAME       MDequil.restart
Info: RESTART FREQUENCY      50000
Info: BINARY RESTART FILES WILL BE USED
Info: SWITCHING ACTIVE
Info: SWITCHING ON           10
Info: SWITCHING OFF          12
Info: PAIRLIST DISTANCE      14
Info: PAIRLIST SHRINK RATE   0.01
Info: PAIRLIST GROW RATE     0.01
Info: PAIRLIST TRIGGER       0.3
Info: PAIRLISTS PER CYCLE    2
Info: PAIRLISTS ENABLED
Info: MARGIN                 0
Info: HYDROGEN GROUP CUTOFF  2.5
Info: PATCH DIMENSION        16.5
Info: ENERGY OUTPUT STEPS    5000
Info: CROSSTERM ENERGY INCLUDED IN DIHEDRAL
Info: TIMING OUTPUT STEPS    50000
Info: PRESSURE OUTPUT STEPS  5000
Info: LANGEVIN DYNAMICS ACTIVE
Info: LANGEVIN TEMPERATURE   300
Info: LANGEVIN USING BBK INTEGRATOR
Info: LANGEVIN DAMPING COEFFICIENT IS 1 INVERSE PS
Info: LANGEVIN DYNAMICS NOT APPLIED TO HYDROGENS
Info: PARTICLE MESH EWALD (PME) ACTIVE
Info: PME TOLERANCE               1e-06
Info: PME EWALD COEFFICIENT       0.257952
Info: PME INTERPOLATION ORDER     4
Info: PME GRID DIMENSIONS         108 108 108
Info: PME MAXIMUM GRID SPACING    1
Info: FULL ELECTROSTATIC EVALUATION FREQUENCY      2
Info: USING VERLET I (r-RESPA) MTS SCHEME.
Info: C1 SPLITTING OF LONG RANGE ELECTROSTATICS
Info: PLACING ATOMS IN PATCHES BY HYDROGEN GROUPS
Info: RIGID BONDS TO HYDROGEN : ALL
Info:         ERROR TOLERANCE : 1e-08
Info:          MAX ITERATIONS : 100
Info: RIGID WATER USING SETTLE ALGORITHM
Info: RANDOM NUMBER SEED     1712568963
Info: USE HYDROGEN BONDS?    NO
Info: COORDINATE PDB         ../input/system.pdb
Info: STRUCTURE FILE         ../input/system.psf
Info: PARAMETER file: CHARMM format!
Info: PARAMETERS             ../input/par_all36m_prot.inp
Info: PARAMETERS             ../input/par_water_ions.inp
Info: USING ARITHMETIC MEAN TO COMBINE L-J SIGMA PARAMETERS
Info: SUMMARY OF PARAMETERS:
Info: 135 BONDS
Info: 365 ANGLES
Info: 706 DIHEDRAL
Info: 35 IMPROPER
Info: 6 CROSSTERM
Info: 68 VDW
Info: 3 VDW_PAIRS
Info: 0 NBTHOLE_PAIRS
Info: STRUCTURE SUMMARY:
Info: 2941 ATOMS
Info: 2377 BONDS
Info: 2827 ANGLES
Info: 3293 DIHEDRALS
Info: 212 IMPROPERS
Info: 74 CROSSTERMS
Info: 0 EXCLUSIONS
Info: 2339 RIGID BONDS
Info: 6484 DEGREES OF FREEDOM
Info: 1172 HYDROGEN GROUPS
Info: 4 ATOMS IN LARGEST HYDROGEN GROUP
Info: 1172 MIGRATION GROUPS
Info: 4 ATOMS IN LARGEST MIGRATION GROUP
Info: TOTAL MASS = 18833.6 amu
Info: TOTAL CHARGE = 1.0021e-06 e
Info: MASS DENSITY = 0.0312747 g/cm^3
Info: ATOM DENSITY = 0.002941 atoms/A^3
Info: ADDED 8468 IMPLICIT EXCLUSIONS
Info: NONBONDED TABLE R-SQUARED SPACING: 0.0625
Info: NONBONDED TABLE SIZE: 769 POINTS
Info: REMOVING COM VELOCITY -0.0709136 -0.136321 0.0910321
TCL: Minimizing for 5000 steps
ETITLE: TS BOND ANGLE DIHED IMPRP ELECT VDW BOUNDARY MISC KINETIC TOTAL TEMP POTENTIAL TOTAL3 TEMPAVG PRESSURE GPRESSURE VOLUME PRESSAVG GPRESSAVG
ENERGY: 0 263.6662 351.8868 709.0855 10.7699 -5692.4918 715.0453 0.0000 0.0000 0.0000 -3642.0381 0.0000 -3642.0381 -3642.0381 0.0000 459.3182 116.1382 1000000.0000 459.3182 116.1382
ENERGY: 1000 75.1212 227.5437 667.8084 9.8627 -9925.9922 604.3135 0.0000 0.0000 0.0000 -8341.3425 0.0000 -8341.3425 -8341.3425 0.0000 386.6574 384.0365 1000000.0000 386.6574 384.0365
ENERGY: 2000 60.0709 212.7928 670.2698 10.0131 -10346.8849 662.0671 0.0000 0.0000 0.0000 -8731.6712 0.0000 -8731.6712 -8731.6712 0.0000 439.9304 439.1905 1000000.0000 439.9304 439.1905
ENERGY: 3000 58.8958 210.6004 670.6738 10.0297 -10470.9290 680.3742 0.0000 0.0000 0.0000 -8840.3552 0.0000 -8840.3552 -8840.3552 0.0000 457.3082 456.4886 1000000.0000 457.3082 456.4886
ENERGY: 4000 58.4456 209.2895 671.8820 11.1640 -10540.5310 674.6117 0.0000 0.0000 0.0000 -8915.1382 0.0000 -8915.1382 -8915.1382 0.0000 463.1925 462.7780 1000000.0000 463.1925 462.7780
ENERGY: 5000 58.3497 209.5188 675.7288 11.5136 -10606.9955 685.2629 0.0000 0.0000 0.0000 -8966.6217 0.0000 -8966.6217 -8966.6217 0.0000 470.0683 468.3402 1000000.0000 470.0683 468.3402
TCL: Running for 500000 steps
ETITLE: TS BOND ANGLE DIHED IMPRP ELECT VDW BOUNDARY MISC KINETIC TOTAL TEMP POTENTIAL TOTAL3 TEMPAVG PRESSURE GPRESSURE VOLUME PRESSAVG GPRESSAVG
ENERGY: 5000 58.3497 209.5188 675.7288 11.5136 -10606.9955 685.2629 0.0000 0.0000 0.0000 -8966.6217 0.0000 -8966.6217 -8966.6701 0.0000 -2.5342 -1.5860 1000000.0000 -2.5342 -1.5860
ENERGY: 105000 241.5055 705.6585 725.2077 44.9362 -9022.4385 213.3077 0.0000 0.0000 1979.8592 -5111.9637 307.3135 -7091.8229 -5097.5941 302.2595 9.0254 9.4337 1000000.0000 0.6038 0.6022
ENERGY: 205000 241.7691 708.3809 720.9491 40.3532 -8937.6126 203.6566 0.0000 0.0000 1987.5631 -5034.9405 308.5093 -7022.5036 -5020.6430 302.1264 -0.0279 -0.6661 1000000.0000 -0.3077 -0.3118
ENERGY: 305000 235.1039 685.0970 742.1975 44.3322 -9034.5284 229.7423 0.0000 0.0000 1945.9709 -5152.0845 302.0534 -7098.0554 -5139.4343 297.6570 7.6343 7.6230 1000000.0000 0.7041 0.6985
ENERGY: 405000 231.4795 723.7372 709.9221 43.5565 -8993.0980 243.4616 0.0000 0.0000 1901.7525 -5139.1887 295.1898 -7040.9413 -5126.8628 299.4190 -14.7039 -15.1905 1000000.0000 -1.5620 -1.5580
ENERGY: 505000 231.9419 646.6599 705.5429 48.9559 -8915.6103 243.5400 0.0000 0.0000 1928.7311 -5110.2384 299.3774 -7038.9696 -5100.0721 300.7002 -4.7654 -4.1005 1000000.0000 -0.1690 -0.1729
